/*--------------------------------*- C++ -*----------------------------------*\
| =========                 |                                                 |
| \\      /  F ield         | foam-extend: Open Source CFD                    |
|  \\    /   O peration     | Version:     4.0                                |
|   \\  /    A nd           | Web:         http://www.foam-extend.org         |
|    \\/     M anipulation  |                                                 |
\*---------------------------------------------------------------------------*/
FoamFile
{
    version     2.0;
    format      ascii;
    class       dictionary;
    location    "system";
    object      fvSolution;
}
// * * * * * * * * * * * * * * * * * * * * * * * * * * * * * * * * * * * * * //

solvers
{
    p
    {
        solver          GAMG;
        smoother  DIC;
        tolerance       1e-06;
        relTol          0.05;
    }
     T
    {
        solver          GAMG;
        smoother  DILU;
        tolerance       1e-06;
        relTol          0.05;
    }

    pFinal
    {
        $p;
        relTol          0;
    }

    U                                   // linear equation system solver for U
    {
        solver          smoothSolver;   // solver type
        smoother        GaussSeidel;    // smoother type
        tolerance       1e-06;          // solver finishes if either absolute
        relTol          0.01;           // tolerance is reached or the relative
                                        // tolerance here
        nSweeps         1;              // setting for smoothSolver
        maxIter         100;            // limitation of iterations number
    }
}

PISO
{
    nCorrectors     2;
    nNonOrthogonalCorrectors 2;
    pRefCell        0;
    pRefValue       0;
}

relaxationFactors
{
    fields
    {
        "(p|p_rgh)"                    0.30;
    }
    equations
    {
        "(U|T|e|h|nuTilda|k|epsilon|omega)" 0.70;
    }
}



// * * * * * * * * * * * * * * * * * * * * * * * * * * * * * * * * * * * * * //
